2024_89_CemigReconfigurationCases/1_SEsCemig/MOO06/MOO06CapacitorMT.dss
new capacitor.CAP48543-1 bus1=BMT165758750.1.0,Phases=1,Conn=LN,Kvar=100,Kv=13.8
new capacitor.CAP48543-2 bus1=BMT165758750.2.0,Phases=1,Conn=LN,Kvar=100,Kv=13.8
new capacitor.CAP48543-3 bus1=BMT165758750.3.0,Phases=1,Conn=LN,Kvar=100,Kv=13.8
new capacitor.CAP99112-1 bus1=BMT153485537.1.0,Phases=1,Conn=LN,Kvar=100,Kv=13.8
new capacitor.CAP99112-2 bus1=BMT153485537.2.0,Phases=1,Conn=LN,Kvar=100,Kv=13.8
new capacitor.CAP99112-3 bus1=BMT153485537.3.0,Phases=1,Conn=LN,Kvar=100,Kv=13.8
new capacitor.CAP134248-1 bus1=BMT156794367.1.0,Phases=1,Conn=LN,Kvar=100,Kv=13.8
new capacitor.CAP134248-2 bus1=BMT156794367.2.0,Phases=1,Conn=LN,Kvar=100,Kv=13.8
new capacitor.CAP134248-3 bus1=BMT156794367.3.0,Phases=1,Conn=LN,Kvar=100,Kv=13.8
new capacitor.CAP214559-1 bus1=BMT137197792.1.0,Phases=1,Conn=LN,Kvar=100,Kv=13.8
new capacitor.CAP214559-2 bus1=BMT137197792.2.0,Phases=1,Conn=LN,Kvar=100,Kv=13.8
new capacitor.CAP214559-3 bus1=BMT137197792.3.0,Phases=1,Conn=LN,Kvar=100,Kv=13.8
new capacitor.CAP214561-1 bus1=BMT123320866.1.0,Phases=1,Conn=LN,Kvar=100,Kv=13.8
new capacitor.CAP214561-2 bus1=BMT123320866.2.0,Phases=1,Conn=LN,Kvar=100,Kv=13.8
new capacitor.CAP214561-3 bus1=BMT123320866.3.0,Phases=1,Conn=LN,Kvar=100,Kv=13.8
new capacitor.CAP214568-1 bus1=BMT132121553.1.0,Phases=1,Conn=LN,Kvar=100,Kv=13.8
new capacitor.CAP214568-2 bus1=BMT132121553.2.0,Phases=1,Conn=LN,Kvar=100,Kv=13.8
new capacitor.CAP214568-3 bus1=BMT132121553.3.0,Phases=1,Conn=LN,Kvar=100,Kv=13.8
new capacitor.CAP214570-1 bus1=BMT123335517.1.0,Phases=1,Conn=LN,Kvar=200,Kv=13.8
new capacitor.CAP214570-2 bus1=BMT123335517.2.0,Phases=1,Conn=LN,Kvar=200,Kv=13.8
new capacitor.CAP214570-3 bus1=BMT123335517.3.0,Phases=1,Conn=LN,Kvar=200,Kv=13.8
new capacitor.CAP214572-1 bus1=BMT165758267.1.0,Phases=1,Conn=LN,Kvar=100,Kv=13.8
new capacitor.CAP214572-2 bus1=BMT165758267.2.0,Phases=1,Conn=LN,Kvar=100,Kv=13.8
new capacitor.CAP214572-3 bus1=BMT165758267.3.0,Phases=1,Conn=LN,Kvar=100,Kv=13.8
new capacitor.CAP214574-1 bus1=BMT165758017.1.0,Phases=1,Conn=LN,Kvar=100,Kv=13.8
new capacitor.CAP214574-2 bus1=BMT165758017.2.0,Phases=1,Conn=LN,Kvar=100,Kv=13.8
new capacitor.CAP214574-3 bus1=BMT165758017.3.0,Phases=1,Conn=LN,Kvar=100,Kv=13.8
new capacitor.CAP214576-1 bus1=BMT137198240.1.0,Phases=1,Conn=LN,Kvar=100,Kv=13.8
new capacitor.CAP214576-2 bus1=BMT137198240.2.0,Phases=1,Conn=LN,Kvar=100,Kv=13.8
new capacitor.CAP214576-3 bus1=BMT137198240.3.0,Phases=1,Conn=LN,Kvar=100,Kv=13.8
new capacitor.CAP239627-1 bus1=BMT157688680.1.0,Phases=1,Conn=LN,Kvar=100,Kv=13.8
new capacitor.CAP239627-2 bus1=BMT157688680.2.0,Phases=1,Conn=LN,Kvar=100,Kv=13.8
new capacitor.CAP239627-3 bus1=BMT157688680.3.0,Phases=1,Conn=LN,Kvar=100,Kv=13.8
new capacitor.CAP245531-1 bus1=BMT165759137.1.0,Phases=1,Conn=LN,Kvar=100,Kv=13.8
new capacitor.CAP245531-2 bus1=BMT165759137.2.0,Phases=1,Conn=LN,Kvar=100,Kv=13.8
new capacitor.CAP245531-3 bus1=BMT165759137.3.0,Phases=1,Conn=LN,Kvar=100,Kv=13.8
new capacitor.CAP253269-1 bus1=BMT165759461.1.0,Phases=1,Conn=LN,Kvar=200,Kv=13.8
new capacitor.CAP253269-2 bus1=BMT165759461.2.0,Phases=1,Conn=LN,Kvar=200,Kv=13.8
new capacitor.CAP253269-3 bus1=BMT165759461.3.0,Phases=1,Conn=LN,Kvar=200,Kv=13.8
new capacitor.CAP291841-1 bus1=BMT130053753.1.0,Phases=1,Conn=LN,Kvar=100,Kv=13.8
new capacitor.CAP291841-2 bus1=BMT130053753.2.0,Phases=1,Conn=LN,Kvar=100,Kv=13.8
new capacitor.CAP291841-3 bus1=BMT130053753.3.0,Phases=1,Conn=LN,Kvar=100,Kv=13.8
